%chk=Rebpy_S0_freq.chk
%mem=59GB
%nprocshared=12
#p freq=(raman,printderivatives,savenm) wb97xd/genecp nosymm
geom=connectivity

Freq of Rebpy

0 1
 Re                 0.00000000    0.00000000    2.97350638
 C                  0.74152000    0.00000000   -0.00000691
 C                 -0.74152392    0.00000000    0.00000650
 H                 -1.02032390    0.10646917   -2.13998066
 H                  1.02062394    0.10653185   -2.14003907
 C                 -1.50125804    0.05573147   -1.16732211
 C                  1.50134469    0.05579295   -1.16728573
 C                 -2.88719405    0.05340662   -1.08115034
 C                  2.88728532    0.05347024   -1.08093510
 N                 -1.32556381   -0.06093977    1.21305484
 C                 -3.48067002   -0.00686579    0.17474321
 C                  3.48056357   -0.00691286    0.17501841
 H                 -4.56142270   -0.00697087    0.29776193
 H                  4.56129895   -0.00706596    0.29815180
 N                  1.32536911   -0.06101410    1.21307652
 C                 -2.66155512   -0.06141222    1.29299250
 C                  2.66133046   -0.06155622    1.29317975
 H                 -3.08249307   -0.10131780    2.29454152
 H                  3.08223241   -0.10159067    2.29473053
 C                  0.00006814   -1.88850063    3.21053860
 Cl                -0.00009082    2.44334864    2.44355456
 O                  0.00001675   -3.04020023    3.35094640
 C                  1.33741946    0.16925068    4.33841532
 C                 -1.33678564    0.16941718    4.33905681
 O                  2.16517335    0.26143390    5.13850448
 H                  3.49448337    0.10113086   -1.98368077
 O                 -2.16390839    0.26177018    5.13978007
 H                 -3.49433868    0.10100974   -1.98393469

 1 20 1.0 23 1.0 24 1.0
 2 7 1.5 3 1.0 15 1.5
 3 6 1.5 10 1.5
 4 6 1.0
 5 7 1.0
 6 8 1.5
 7 9 1.5
 8 11 1.5 28 1.0
 9 12 1.5 26 1.0
 10 16 1.5
 11 13 1.0 16 1.5
 12 14 1.0 17 1.5
 13
 14
 15 17 1.5
 16 18 1.0
 17 19 1.0
 18
 19
 20 22 2.0
 21
 22
 23 25 3.0
 24 27 3.0
 25
 26
 27
 28

C H N Cl O 0
aug-cc-pvdz
****
Re 0
LANL2DZ
****

Re 0
LANL2DZ











