%chk=Rebpy_S0_opt.chk
%mem=59GB
%nprocshared=12
#p opt wb97xd/genecp nosymm geom=connectivity

Optimization of Rebpy 

0 1
 H                  0.00000000    0.00000000    0.00000000
 H                  0.00000000    0.00000000    2.21327976
 C                  0.97148376    0.00000000   -0.44833794
 C                  0.97180507   -0.00048778    2.66104162
 C                  1.12113290    0.06020773   -1.83820076
 C                  1.12255472    0.05863799    4.05098537
 C                  2.12380031   -0.05501075    0.33833878
 C                  2.12382533   -0.05528134    1.87352453
 C                  2.41543741    0.06603223   -2.38295823
 C                  2.41739215    0.06357003    4.59452245
 H                  2.55363724    0.12875643   -3.44214380
 H                  2.55618102    0.12581482    5.65353714
 N                  3.34087616   -0.09552742   -0.20437303
 N                  3.34101371   -0.09646815    2.41503329
 C                  3.52935963   -0.01340946   -1.52817709
 C                  3.53063103   -0.01589125    3.73880365
 H                  4.51996830   -0.01211404   -1.93208139
 H                  4.52143190   -0.01564933    4.14241875
 Re                 4.81623445   -0.28675770    1.10345635
 C                  5.24678311    1.71646424    1.04837080
 Cl                 4.61616007   -2.54625662    1.18467842
 O                  5.51400253    2.94637087    1.01651030
 C                  6.34355270   -0.48466102    2.45986689
 C                  6.08363814   -0.59485622   -0.47833452
 O                  7.28147956   -0.60946731    3.28990792
 H                  0.26507336    0.10131047    4.68948824
 O                  6.85965730   -0.78666933   -1.44979953
 H                  0.26283758    0.10316733   -2.47588064

 1 3 1.0
 2 4 1.0
 3 5 1.5 7 1.5
 4 6 1.5 8 1.5
 5 9 1.5 28 1.0
 6 10 1.5 26 1.0
 7 8 1.0 13 1.5
 8 14 1.5
 9 11 1.0 15 1.5
 10 12 1.0 16 1.5
 11
 12
 13 15 1.5 19 1.0
 14 16 1.5 19 1.0
 15 17 1.0
 16 18 1.0
 17
 18
 19 20 1.0 23 1.0 24 1.0 21 1.0
 20 22 2.0
 21
 22
 23 25 2.0
 24 27 2.0
 25
 26
 27
 28

C H N Cl O 0
aug-cc-pvdz
****
Re 0
LANL2DZ
****

Re 0
LANL2DZ





